8
Lattice="5.43 0.0 0.0 0.0 5.43 0.0 0.0 0.0 5.43" Properties=species:S:1:pos:R:3:spacegroup_kinds:I:1 spacegroup="F d -3 m" unit_cell=conventional pbc="T T T"
Si       0.00000000       0.00000000       0.00000000        0
Si       0.00000000       2.71500000       2.71500000        0
Si       2.71500000       2.71500000       0.00000000        0
Si       2.71500000       0.00000000       2.71500000        0
Si       4.07250000       1.35750000       4.07250000        0
Si       1.35750000       1.35750000       1.35750000        0
Si       1.35750000       4.07250000       4.07250000        0
Si       4.07250000       4.07250000       1.35750000        0
